[General]
network = inet.examples.cognitive.cognitiveNetwork

cmdenv-express-mode = true
ned-path = ../../src;..
record-eventlog = false
sim-time-limit = 5000s

#bitmap-path = "../../bitmaps"
# tkenv-default-run = 1
#breakpoints-enabled = true
tkenv-default-config = 

# cmdenv-runs-to-execute = 1
cmdenv-event-banners = true
cmdenv-module-messages = true

**.playgroundSizeX = 500m
**.playgroundSizeY = 500m
**.playgroundSizeZ = 50m
**.numHosts = 10

# uncomment to enable debug messages for all modules
**.debug = true
**.coreDebug = true

##############################################################################
#       Parameters for the ConnectionManager                                 #
##############################################################################
**.connectionManager.carrierFrequency = 2.4e+9Hz  # [Hz]

# max transmission power [mW]
**.connectionManager.pMax = 110.11mW  # [mW]
# signal attenuation threshold [dBm]
**.connectionManager.sat = -120dBm  # [dBm]
# path loss coefficient alpha
**.connectionManager.alpha = 4
**.connectionManager.sendDirect = false

##############################################################################
#       Parameters for the Mac Layer                                         #
##############################################################################

# debug switch
**.mac.headerLength = 272 bit
**.mac.queueLength = 14
**.mac.bitrate = 2E+6bps# in bits/second
**.mac.autoBitrate = false

### values if no fading is modelled, gives at most 1% packet error rate
**.mac.snr2Mbit = 1.46dB  # [dB]
**.mac.snr5Mbit = 2.6dB  # [dB]
**.mac.snr11Mbit = 5.68dB  # [dB]

**.mac.rtsCtsThreshold = 400
**.mac.neighborhoodCacheSize = 30
**.mac.neighborhoodCacheMaxAge = 100s  # [s]

**.mac.txPower = 110.11mW  # [mW]

##############################################################################
#       Parameters for the Phy                                               #
##############################################################################

**.phy.usePropagationDelay = false
**.phy.thermalNoise = -110dBm  # [dBm]
**.phy.analogueModels = xmldoc("config.xml")
**.phy.decider = xmldoc("config.xml")
**.phy.sensitivity = -119.5dBm  # [dBm]
**.phy.maxTXPower = 110.11mW
**.phy.initialRadioState = 0

**.phy.useThermalNoise = true

##############################################################################
#       Parameters for the Network Layer                                     #
##############################################################################
**.netwl.headerLength = 32bit# in bits
**.netwl.stats = false

##############################################################################
#       Parameters for the Application Layer                                 #
##############################################################################

# debug switch
**.appl.headerLength = 1024bit
**.appl.burstSize = 3

[Config HiddenStation]
description = "Cognitive Prova"
**.numHosts = 3
**.playgroundSizeX = 500m
**.playgroundSizeY = 500m

**.host[0].mobility.initialX = 30m
**.host[0].mobility.initialY = 100m

**.host[1].mobility.initialX = 230m
**.host[1].mobility.initialY = 100m

**.host[2].mobility.initialX = 420m
**.host[2].mobility.initialY = 100m