[General]
network = inet.examples.cognitive.cognitiveNetwork

cmdenv-express-mode = true
ned-path = ../../src;..
record-eventlog = false
sim-time-limit = 5000s

#bitmap-path = "../../bitmaps"
# tkenv-default-run = 1
#breakpoints-enabled = true
tkenv-default-config = 

# cmdenv-runs-to-execute = 1
cmdenv-event-banners = true
cmdenv-module-messages = true

**.playgroundSizeX = 500m
**.playgroundSizeY = 500m
**.playgroundSizeZ = 50m
**.numHosts = 10

# uncomment to enable debug messages for all modules
**.debug = true
**.coreDebug = true

##############################################################################
#       Parameters for the ConnectionManager                                 #
##############################################################################
**.connectionManager.carrierFrequency = 2.4e+9Hz  # [Hz]

# max transmission power [mW]
**.connectionManager.pMax = 110.11mW  # [mW]
# signal attenuation threshold [dBm]
**.connectionManager.sat = -120dBm  # [dBm]
# path loss coefficient alpha
**.connectionManager.alpha = 4
**.connectionManager.sendDirect = false

##############################################################################
#       Parameters for the Mac Layer                                         #
##############################################################################

# debug switch
**.mac.headerLength = 272 bit
**.mac.queueLength = 14
**.mac.bitrate = 2E+6bps# in bits/second
**.mac.autoBitrate = false

### values if no fading is modelled, gives at most 1% packet error rate
**.mac.snr2Mbit = 1.46dB  # [dB]
**.mac.snr5Mbit = 2.6dB  # [dB]
**.mac.snr11Mbit = 5.68dB  # [dB]

**.mac.rtsCtsThreshold = 400
**.mac.neighborhoodCacheSize = 30
**.mac.neighborhoodCacheMaxAge = 100s  # [s]

**.mac.txPower = 110.11mW  # [mW]

##############################################################################
#       Parameters for the Network Layer                                     #
##############################################################################
#**.netwl.headerLength = 32bit# in bits
#**.netwl.stats = false

##############################################################################
#       Parameters for the Application Layer                                 #
##############################################################################

**.host*.mobility.initFromDisplayString = false
**.host*.mobility.changeInterval = truncnormal(2s, 0.5s)
**.host*.mobility.changeAngleBy = normal(0deg, 30deg)
**.host*.mobility.speed = truncnormal(20mps, 8mps)
**.host*.mobility.updateInterval = 100ms

#**.host*.appl.destAddresses = "Broadcast"
#**.host*.appl.chooseDestAddrMode = "once"
#**.host*.appl.destPort = 10000
#**.host*.appl.messageLength = 1024B
#**.host*.appl.burstDuration = 0.5s
#**.host*.appl.sendInterval = 1s
#**.host*.appl.sleepDuration = 2s

**.host[*].radio.bitrate = 2Mbps

**.host[*].mobility.initialZ = 0m

[Config Cognitive]
description = "Prova"
**.numHosts = 10
**.playgroundSizeX = 500m
**.playgroundSizeY = 500m

**.mobility.constraintAreaMaxX = 500m
**.mobility.constraintAreaMaxY = 500m

**.host*.mobilityType = "StationaryMobility"

**.host[*].mobility.initialX = uniform(1m,200m)
**.host[*].mobility.initialY = uniform(1m,200m)