[General]
network = inet.examples.cognitive.cognitiveNetwork

cmdenv-express-mode = true
ned-path = ../../src;..
record-eventlog = false
sim-time-limit = 5000s

#bitmap-path = "../../bitmaps"
# tkenv-default-run = 1
#breakpoints-enabled = true
tkenv-default-config = 

# cmdenv-runs-to-execute = 1
cmdenv-event-banners = true
cmdenv-module-messages = true

**.numHosts = 10

# uncomment to enable debug messages for all modules
**.debug = true
**.coreDebug = true

##############################################################################
#       Parameters for the Mac Layer                                         #
##############################################################################

# Added, need to check
**.mac.maxQueueSize = 14
**.mac.broadcastBackoff = 0.5
**.mac.bitrate = 2E+6bps# in bits/second

**.decider.bitrate = 11Mbps
**.radio.transmitterPower = 60 mW
**.radio.headerLength = 20b
**.radio.carrierFrequency = 2.4 GHz
**.radio.thermalNoise = 1dBm
**.radio.pathLossAlpha = 1.9
**.radio.sensitivity = -80dBm

### values if no fading is modelled, gives at most 1% packet error rate
**.mac.snr2Mbit = 1.46dB  # [dB]
**.mac.snr5Mbit = 2.6dB  # [dB]
**.mac.snr11Mbit = 5.68dB  # [dB]

**.mac.rtsCtsThreshold = 400
**.mac.neighborhoodCacheSize = 30
**.mac.neighborhoodCacheMaxAge = 100s  # [s]

**.host*.mobility.initFromDisplayString = false
**.host*.mobility.changeInterval = truncnormal(2s, 0.5s)
**.host*.mobility.changeAngleBy = normal(0deg, 30deg)
**.host*.mobility.speed = truncnormal(20mps, 8mps)
**.host*.mobility.updateInterval = 100ms

**.host*.appl.destAddresses = "Broadcast"
**.host*.appl.chooseDestAddrMode = "once"
**.host*.appl.destPort = 10000
**.host*.appl.messageLength = 1024B
**.host*.appl.burstDuration = 0.5s
**.host*.appl.sendInterval = 1s
**.host*.appl.sleepDuration = 2s

**.host[*].radio.bitrate = 2Mbps
**.host[*].radio.channelNumber = uniform(0, 11)
**.channelControl.numChannels = 11
**.channelControl.sat = -80dBm
**.channelControl.alpha = 1.9
**.channelControl.pMax = 60mW

**.host[*].mobility.initialZ = 0m

[Config Cognitive]
description = "Prova"
**.numHosts = 100

**.mobility.constraintAreaMaxX = 500m
**.mobility.constraintAreaMaxY = 500m

**.host*.mobilityType = "StationaryMobility"

**.host[*].mobility.initialX = uniform(1m,500m)
**.host[*].mobility.initialY = uniform(1m,500m)